  Page 1                                    Wed Apr  7 09:14:33 2021

  ******************************************************************
  *                           E P A N E T                          *
  *                   Hydraulic and Water Quality                  *
  *                   Analysis for Pipe Networks                   *
  *                         Version 2.2                            *
  ******************************************************************
  
  Analysis begun Wed Apr  7 09:14:33 2021

   
  Hydraulic Status:
  -----------------------------------------------------------------------
     0:00:00: Balancing the network:

              Trial  1: relative flow change = 2.291469
              PRV PRV-1 switched from active to closed
              PRV PRV-2 switched from active to closed
              Trial  2: relative flow change = 1.780807
              PRV PRV-1 switched from closed to active
              PRV PRV-2 switched from closed to active
              PRV PRV-3 switched from active to open
              Pump PUMP_1 switched from open to closed
              Trial  3: relative flow change = 1.604214
              PRV PRV-3 switched from open to active
              Trial  4: relative flow change = 0.526758
              Pump PUMP_1 switched from closed to open
              Trial  5: relative flow change = 0.994773
              PRV PRV-3 switched from active to open
              Trial  6: relative flow change = 1.007488
              Pump PUMP_1 switched from open to closed
              Trial  7: relative flow change = 2.979563
              PRV PRV-3 switched from open to active
              Trial  8: relative flow change = 1.369450
              PRV PRV-2 switched from active to closed
              Pump PUMP_1 switched from closed to open
              Trial  9: relative flow change = 0.845766
              PRV PRV-2 switched from closed to active
              PRV PRV-3 switched from active to open
              Trial 10: relative flow change = 1.112259
              PRV PRV-3 switched from open to active
              Trial 11: relative flow change = 1.027606
              Trial 12: relative flow change = 0.788523
              Trial 13: relative flow change = 0.441914
              Trial 14: relative flow change = 0.168284
              Trial 15: relative flow change = 0.042398
              Trial 16: relative flow change = 0.008613
                        maximum  flow change = 1.6638 for Link p227
                        maximum  head error  = 0.0007 for Link p687

     0:00:00: Balanced after 16 trials
     0:00:00: Reservoir R1 is emptying
     0:00:00: Reservoir R2 is emptying
     0:00:00: Tank T1 is filling at 3.50 m
   
     0:05:00: Balancing the network:

              Trial  1: relative flow change = 0.014468
              Trial  2: relative flow change = 0.002144
                        maximum  flow change = 1.7643 for Link p227
                        maximum  head error  = 0.0000 for Link p227

     0:05:00: Balanced after 2 trials
   
     0:10:00: Balancing the network:

              Trial  1: relative flow change = 0.014303
              Trial  2: relative flow change = 0.002145
                        maximum  flow change = 1.7654 for Link PRV-1
                        maximum  head error  = 0.0000 for Link p227

     0:10:00: Balanced after 2 trials
   
     0:15:00: Balancing the network:

              Trial  1: relative flow change = 0.014351
              Trial  2: relative flow change = 0.002178
                        maximum  flow change = 1.7455 for Link p227
                        maximum  head error  = 0.0000 for Link p227

     0:15:00: Balanced after 2 trials
   
     0:20:00: Balancing the network:

              Trial  1: relative flow change = 0.014232
              Trial  2: relative flow change = 0.002190
                        maximum  flow change = 1.7057 for Link PRV-1
                        maximum  head error  = 0.0000 for Link p227

     0:20:00: Balanced after 2 trials
   
     0:25:00: Balancing the network:

              Trial  1: relative flow change = 0.014131
              Trial  2: relative flow change = 0.002210
                        maximum  flow change = 1.6689 for Link p227
                        maximum  head error  = 0.0000 for Link p227

     0:25:00: Balanced after 2 trials
   
     0:30:00: Balancing the network:

              Trial  1: relative flow change = 0.014165
              Trial  2: relative flow change = 0.002244
                        maximum  flow change = 1.6487 for Link p227
                        maximum  head error  = 0.0000 for Link p227

     0:30:00: Balanced after 2 trials
   
     0:35:00: Balancing the network:

              Trial  1: relative flow change = 0.014268
              Trial  2: relative flow change = 0.002279
                        maximum  flow change = 1.6369 for Link p227
                        maximum  head error  = 0.0000 for Link p227

     0:35:00: Balanced after 2 trials
   
     0:40:00: Balancing the network:

              Trial  1: relative flow change = 0.014579
              Trial  2: relative flow change = 0.002348
                        maximum  flow change = 1.6483 for Link PRV-1
                        maximum  head error  = 0.0000 for Link p227

     0:40:00: Balanced after 2 trials
   
     0:45:00: Balancing the network:

              Trial  1: relative flow change = 0.014810
              Trial  2: relative flow change = 0.002374
                        maximum  flow change = 1.6507 for Link p227
                        maximum  head error  = 0.0000 for Link p227

     0:45:00: Balanced after 2 trials
   
     0:50:00: Balancing the network:

              Trial  1: relative flow change = 0.014975
              Trial  2: relative flow change = 0.002401
                        maximum  flow change = 1.6449 for Link p227
                        maximum  head error  = 0.0000 for Link p227

     0:50:00: Balanced after 2 trials
   
     0:55:00: Balancing the network:

              Trial  1: relative flow change = 0.014913
              Trial  2: relative flow change = 0.002361
                        maximum  flow change = 1.6155 for Link p227
                        maximum  head error  = 0.0000 for Link p227

     0:55:00: Balanced after 2 trials
   
     1:00:00: Balancing the network:

              Trial  1: relative flow change = 0.014767
              Trial  2: relative flow change = 0.002320
                        maximum  flow change = 1.5774 for Link PRV-1
                        maximum  head error  = 0.0000 for Link p227

     1:00:00: Balanced after 2 trials
   
     1:05:00: Balancing the network:

              Trial  1: relative flow change = 0.014378
              Trial  2: relative flow change = 0.002226
                        maximum  flow change = 1.5153 for Link PRV-1
                        maximum  head error  = 0.0000 for Link p227

     1:05:00: Balanced after 2 trials
   
     1:10:00: Balancing the network:

              Trial  1: relative flow change = 0.014004
              Trial  2: relative flow change = 0.002153
                        maximum  flow change = 1.4560 for Link p227
                        maximum  head error  = 0.0000 for Link p227

     1:10:00: Balanced after 2 trials
   
     1:15:00: Balancing the network:

              Trial  1: relative flow change = 0.013752
              Trial  2: relative flow change = 0.002099
                        maximum  flow change = 1.4111 for Link p227
                        maximum  head error  = 0.0000 for Link p227

     1:15:00: Balanced after 2 trials
   
     1:20:00: Balancing the network:

              Trial  1: relative flow change = 0.013662
              Trial  2: relative flow change = 0.002075
                        maximum  flow change = 1.3836 for Link p227
                        maximum  head error  = 0.0000 for Link p227

     1:20:00: Balanced after 2 trials
   
     1:25:00: Balancing the network:

              Trial  1: relative flow change = 0.013703
              Trial  2: relative flow change = 0.002095
                        maximum  flow change = 1.3684 for Link PRV-1
                        maximum  head error  = 0.0000 for Link p227

     1:25:00: Balanced after 2 trials
   
     1:30:00: Balancing the network:

              Trial  1: relative flow change = 0.013934
              Trial  2: relative flow change = 0.002148
                        maximum  flow change = 1.3713 for Link PRV-1
                        maximum  head error  = 0.0000 for Link p227

     1:30:00: Balanced after 2 trials
   
     1:35:00: Balancing the network:

              Trial  1: relative flow change = 0.014142
              Trial  2: relative flow change = 0.002193
                        maximum  flow change = 1.3713 for Link p227
                        maximum  head error  = 0.0000 for Link p227

     1:35:00: Balanced after 2 trials
   
     1:40:00: Balancing the network:

              Trial  1: relative flow change = 0.014182
              Trial  2: relative flow change = 0.002222
                        maximum  flow change = 1.3536 for Link PRV-1
                        maximum  head error  = 0.0000 for Link p227

     1:40:00: Balanced after 2 trials
   
     1:45:00: Balancing the network:

              Trial  1: relative flow change = 0.013980
              Trial  2: relative flow change = 0.002205
                        maximum  flow change = 1.3144 for Link PRV-1
                        maximum  head error  = 0.0000 for Link p227

     1:45:00: Balanced after 2 trials
   
     1:50:00: Balancing the network:

              Trial  1: relative flow change = 0.013451
              Trial  2: relative flow change = 0.002116
                        maximum  flow change = 1.2472 for Link PRV-1
                        maximum  head error  = 0.0000 for Link p227

     1:50:00: Balanced after 2 trials
   
     1:55:00: Balancing the network:

              Trial  1: relative flow change = 0.012689
              Trial  2: relative flow change = 0.001980
                        maximum  flow change = 1.1609 for Link PRV-1
                        maximum  head error  = 0.0000 for Link p227

     1:55:00: Balanced after 2 trials
   
     2:00:00: Balancing the network:

              Trial  1: relative flow change = 0.011513
              Trial  2: relative flow change = 0.001778
                        maximum  flow change = 1.0422 for Link p227
                        maximum  head error  = 0.0000 for Link p227

     2:00:00: Balanced after 2 trials
   
     2:05:00: Balancing the network:

              Trial  1: relative flow change = 0.010457
              Trial  2: relative flow change = 0.001590
                        maximum  flow change = 0.9378 for Link p227
                        maximum  head error  = 0.0000 for Link p227

     2:05:00: Balanced after 2 trials
   
     2:10:00: Balancing the network:

              Trial  1: relative flow change = 0.009489
                        maximum  flow change = 0.5850 for Link p182
                        maximum  head error  = 0.0000 for Link p189

     2:10:00: Balanced after 1 trials
   
     2:15:00: Balancing the network:

              Trial  1: relative flow change = 0.009984
                        maximum  flow change = 0.8446 for Link p227
                        maximum  head error  = 0.0000 for Link p209

     2:15:00: Balanced after 1 trials
   
     2:20:00: Balancing the network:

              Trial  1: relative flow change = 0.009492
                        maximum  flow change = 0.8186 for Link PRV-1
                        maximum  head error  = 0.0000 for Link p209

     2:20:00: Balanced after 1 trials
   
     2:20:47: Pump PUMP_1 changed by Tank T1 control
     2:20:47: Balancing the network:

              Trial  1: relative flow change = 0.690119
              Trial  2: relative flow change = 0.141538
              PRV PRV-1 switched from active to closed
              Trial  3: relative flow change = 0.298338
              Trial  4: relative flow change = 0.027672
              Trial  5: relative flow change = 0.002321
                        maximum  flow change = 0.0937 for Link p194
                        maximum  head error  = 0.0000 for Link p193

     2:20:47: Balanced after 5 trials
     2:20:47: Reservoir R1 is closed
     2:20:47: Tank T1 is emptying at 3.90 m
     2:20:47: Pump PUMP_1 changed from open to closed
     2:20:47: PRV PRV-1 changed from active to closed
   
     2:25:00: Balancing the network:

              Trial  1: relative flow change = 0.017432
              Trial  2: relative flow change = 0.001908
                        maximum  flow change = 1.1358 for Link PRV-2
                        maximum  head error  = 0.0000 for Link p235

     2:25:00: Balanced after 2 trials
   
     2:30:00: Balancing the network:

              Trial  1: relative flow change = 0.017559
              Trial  2: relative flow change = 0.001987
                        maximum  flow change = 1.1247 for Link p235
                        maximum  head error  = 0.0000 for Link p235

     2:30:00: Balanced after 2 trials
   
     2:35:00: Balancing the network:

              Trial  1: relative flow change = 0.018235
              Trial  2: relative flow change = 0.002120
                        maximum  flow change = 1.1479 for Link PRV-2
                        maximum  head error  = 0.0000 for Link p235

     2:35:00: Balanced after 2 trials
   
     2:40:00: Balancing the network:

              Trial  1: relative flow change = 0.018618
              Trial  2: relative flow change = 0.002240
                        maximum  flow change = 1.1522 for Link p235
                        maximum  head error  = 0.0000 for Link p235

     2:40:00: Balanced after 2 trials
   
     2:45:00: Balancing the network:

              Trial  1: relative flow change = 0.019015
              Trial  2: relative flow change = 0.002328
                        maximum  flow change = 1.1543 for Link p235
                        maximum  head error  = 0.0000 for Link p235

     2:45:00: Balanced after 2 trials
   
     2:50:00: Balancing the network:

              Trial  1: relative flow change = 0.018913
              Trial  2: relative flow change = 0.002351
                        maximum  flow change = 1.1259 for Link PRV-2
                        maximum  head error  = 0.0000 for Link p235

     2:50:00: Balanced after 2 trials
   
     2:55:00: Balancing the network:

              Trial  1: relative flow change = 0.017914
              Trial  2: relative flow change = 0.002242
                        maximum  flow change = 1.0460 for Link PRV-2
                        maximum  head error  = 0.0000 for Link p235

     2:55:00: Balanced after 2 trials
   
     3:00:00: Balancing the network:

              Trial  1: relative flow change = 0.016662
              Trial  2: relative flow change = 0.002076
                        maximum  flow change = 0.9544 for Link PRV-2
                        maximum  head error  = 0.0000 for Link p235

     3:00:00: Balanced after 2 trials
   
     3:05:00: Balancing the network:

              Trial  1: relative flow change = 0.014976
              Trial  2: relative flow change = 0.001877
                        maximum  flow change = 0.8440 for Link p235
                        maximum  head error  = 0.0000 for Link p235

     3:05:00: Balanced after 2 trials
   
     3:10:00: Balancing the network:

              Trial  1: relative flow change = 0.013012
              Trial  2: relative flow change = 0.001618
                        maximum  flow change = 0.7220 for Link p235
                        maximum  head error  = 0.0000 for Link p235

     3:10:00: Balanced after 2 trials
   
     3:15:00: Balancing the network:

              Trial  1: relative flow change = 0.011061
              Trial  2: relative flow change = 0.001413
                        maximum  flow change = 0.6079 for Link PRV-2
                        maximum  head error  = 0.0000 for Link p235

     3:15:00: Balanced after 2 trials
   
     3:20:00: Balancing the network:

              Trial  1: relative flow change = 0.009228
                        maximum  flow change = 0.5034 for Link p110
                        maximum  head error  = 0.0000 for Link p110

     3:20:00: Balanced after 1 trials
   
     3:25:00: Balancing the network:

              Trial  1: relative flow change = 0.009433
                        maximum  flow change = 0.5063 for Link p235
                        maximum  head error  = 0.0000 for Link p110

     3:25:00: Balanced after 1 trials
   
     3:30:00: Balancing the network:

              Trial  1: relative flow change = 0.008857
                        maximum  flow change = 0.4784 for Link p235
                        maximum  head error  = 0.0000 for Link p110

     3:30:00: Balanced after 1 trials
   
     3:35:00: Balancing the network:

              Trial  1: relative flow change = 0.008855
                        maximum  flow change = 0.4453 for Link p235
                        maximum  head error  = 0.0000 for Link p110

     3:35:00: Balanced after 1 trials
   
     3:40:00: Balancing the network:

              Trial  1: relative flow change = 0.009666
                        maximum  flow change = 0.4752 for Link p110
                        maximum  head error  = 0.0000 for Link p110

     3:40:00: Balanced after 1 trials
   
     3:45:00: Balancing the network:

              Trial  1: relative flow change = 0.010384
              Trial  2: relative flow change = 0.001071
                        maximum  flow change = 0.5016 for Link p235
                        maximum  head error  = 0.0000 for Link p235

     3:45:00: Balanced after 2 trials
   
     3:50:00: Balancing the network:

              Trial  1: relative flow change = 0.010043
              Trial  2: relative flow change = 0.001049
                        maximum  flow change = 0.5058 for Link p235
                        maximum  head error  = 0.0000 for Link p235

     3:50:00: Balanced after 2 trials
   
     3:55:00: Balancing the network:

              Trial  1: relative flow change = 0.010051
              Trial  2: relative flow change = 0.000983
                        maximum  flow change = 0.4979 for Link PRV-2
                        maximum  head error  = 0.0000 for Link p235

     3:55:00: Balanced after 2 trials
   
     4:00:00: Balancing the network:

              Trial  1: relative flow change = 0.009550
                        maximum  flow change = 0.4674 for Link p110
                        maximum  head error  = 0.0000 for Link p110

     4:00:00: Balanced after 1 trials
   
     4:05:00: Balancing the network:

              Trial  1: relative flow change = 0.008789
                        maximum  flow change = 0.4700 for Link p235
                        maximum  head error  = 0.0000 for Link p110

     4:05:00: Balanced after 1 trials
   
     4:10:00: Balancing the network:

              Trial  1: relative flow change = 0.006463
                        maximum  flow change = 0.4009 for Link p235
                        maximum  head error  = 0.0000 for Link p110

     4:10:00: Balanced after 1 trials
   
     4:15:00: Balancing the network:

              Trial  1: relative flow change = 0.003917
                        maximum  flow change = 0.2933 for Link p235
                        maximum  head error  = 0.0000 for Link p235

     4:15:00: Balanced after 1 trials
   
     4:20:00: Balancing the network:

              Trial  1: relative flow change = 0.001435
                        maximum  flow change = 0.1764 for Link p235
                        maximum  head error  = 0.0000 for Link p235

     4:20:00: Balanced after 1 trials
   
     4:25:00: Balancing the network:

              Trial  1: relative flow change = 0.001171
                        maximum  flow change = 0.0661 for Link PRV-2
                        maximum  head error  = 0.0000 for Link p153

     4:25:00: Balanced after 1 trials
   
     4:30:00: Balancing the network:

              Trial  1: relative flow change = 0.002456
                        maximum  flow change = 0.0977 for Link p110
                        maximum  head error  = 0.0000 for Link p110

     4:30:00: Balanced after 1 trials
   
     4:35:00: Balancing the network:

              Trial  1: relative flow change = 0.003917
                        maximum  flow change = 0.1691 for Link p110
                        maximum  head error  = 0.0000 for Link p110

     4:35:00: Balanced after 1 trials
   
     4:40:00: Balancing the network:

              Trial  1: relative flow change = 0.005128
                        maximum  flow change = 0.2299 for Link p110
                        maximum  head error  = 0.0000 for Link p110

     4:40:00: Balanced after 1 trials
   
     4:45:00: Balancing the network:

              Trial  1: relative flow change = 0.006746
                        maximum  flow change = 0.3123 for Link p110
                        maximum  head error  = 0.0000 for Link p110

     4:45:00: Balanced after 1 trials
   
     4:50:00: Balancing the network:

              Trial  1: relative flow change = 0.009221
                        maximum  flow change = 0.4365 for Link p110
                        maximum  head error  = 0.0000 for Link p110

     4:50:00: Balanced after 1 trials
   
     4:55:00: Balancing the network:

              Trial  1: relative flow change = 0.012577
              Trial  2: relative flow change = 0.001201
                        maximum  flow change = 0.6057 for Link p235
                        maximum  head error  = 0.0000 for Link p235

     4:55:00: Balanced after 2 trials
   
     5:00:00: Balancing the network:

              Trial  1: relative flow change = 0.015503
              Trial  2: relative flow change = 0.001559
                        maximum  flow change = 0.7907 for Link PRV-2
                        maximum  head error  = 0.0000 for Link p235

     5:00:00: Balanced after 2 trials
   
     5:05:00: Balancing the network:

              Trial  1: relative flow change = 0.019916
              Trial  2: relative flow change = 0.001956
                        maximum  flow change = 1.0357 for Link p235
                        maximum  head error  = 0.0000 for Link p235

     5:05:00: Balanced after 2 trials
   
     5:10:00: Balancing the network:

              Trial  1: relative flow change = 0.024382
              Trial  2: relative flow change = 0.002256
                        maximum  flow change = 1.2955 for Link PRV-2
                        maximum  head error  = 0.0000 for Link p235

     5:10:00: Balanced after 2 trials
   
     5:15:00: Balancing the network:

              Trial  1: relative flow change = 0.028993
              Trial  2: relative flow change = 0.002511
                        maximum  flow change = 1.5814 for Link PRV-2
                        maximum  head error  = 0.0000 for Link p235

     5:15:00: Balanced after 2 trials
   
     5:20:00: Balancing the network:

              Trial  1: relative flow change = 0.033733
              Trial  2: relative flow change = 0.002707
                        maximum  flow change = 1.8974 for Link PRV-2
                        maximum  head error  = 0.0000 for Link p235

     5:20:00: Balanced after 2 trials
   
     5:25:00: Balancing the network:

              Trial  1: relative flow change = 0.038638
              Trial  2: relative flow change = 0.002854
                        maximum  flow change = 2.2527 for Link PRV-2
                        maximum  head error  = 0.0001 for Link p235

     5:25:00: Balanced after 2 trials
   
     5:30:00: Balancing the network:

              Trial  1: relative flow change = 0.044253
              Trial  2: relative flow change = 0.003078
                        maximum  flow change = 2.6952 for Link PRV-2
                        maximum  head error  = 0.0001 for Link p235

     5:30:00: Balanced after 2 trials
   
     5:35:00: Balancing the network:

              Trial  1: relative flow change = 0.050784
              Trial  2: relative flow change = 0.003330
                        maximum  flow change = 3.2550 for Link p235
                        maximum  head error  = 0.0001 for Link p235

     5:35:00: Balanced after 2 trials
   
     5:40:00: Balancing the network:

              Trial  1: relative flow change = 0.057810
              Trial  2: relative flow change = 0.003702
                        maximum  flow change = 3.9383 for Link p235
                        maximum  head error  = 0.0002 for Link p235

     5:40:00: Balanced after 2 trials
   
     5:45:00: Balancing the network:

              Trial  1: relative flow change = 0.064802
              Trial  2: relative flow change = 0.004104
                        maximum  flow change = 4.7337 for Link p235
                        maximum  head error  = 0.0003 for Link p235

     5:45:00: Balanced after 2 trials
   
     5:50:00: Balancing the network:

              Trial  1: relative flow change = 0.070871
              PRV PRV-1 switched from closed to active
              Trial  2: relative flow change = 0.014118
              Trial  3: relative flow change = 0.000621
                        maximum  flow change = 0.4926 for Link p227
                        maximum  head error  = 0.0000 for Link p227

     5:50:00: Balanced after 3 trials
     5:50:00: Reservoir R1 is emptying
     5:50:00: PRV PRV-1 changed from closed to active
   
     5:55:00: Balancing the network:

              Trial  1: relative flow change = 0.048128
              Trial  2: relative flow change = 0.006597
                        maximum  flow change = 4.0822 for Link PRV-1
                        maximum  head error  = 0.0002 for Link p227

     5:55:00: Balanced after 2 trials
   
     6:00:00: Balancing the network:

              Trial  1: relative flow change = 0.053045
              Trial  2: relative flow change = 0.007983
                        maximum  flow change = 4.6156 for Link p227
                        maximum  head error  = 0.0003 for Link p227

     6:00:00: Balanced after 2 trials
   
     6:05:00: Balancing the network:

              Trial  1: relative flow change = 0.056594
              Trial  2: relative flow change = 0.006643
                        maximum  flow change = 5.0774 for Link p227
                        maximum  head error  = 0.0003 for Link p227

     6:05:00: Balanced after 2 trials
   
     6:10:00: Balancing the network:

              Trial  1: relative flow change = 0.057291
              Trial  2: relative flow change = 0.006607
                        maximum  flow change = 5.2569 for Link PRV-1
                        maximum  head error  = 0.0003 for Link p227

     6:10:00: Balanced after 2 trials
   
     6:15:00: Balancing the network:

              Trial  1: relative flow change = 0.055533
              Trial  2: relative flow change = 0.006612
                        maximum  flow change = 5.2366 for Link p227
                        maximum  head error  = 0.0003 for Link p227

     6:15:00: Balanced after 2 trials
   
     6:20:00: Balancing the network:

              Trial  1: relative flow change = 0.051401
              Trial  2: relative flow change = 0.006091
                        maximum  flow change = 4.9224 for Link p227
                        maximum  head error  = 0.0002 for Link p227

     6:20:00: Balanced after 2 trials
   
     6:25:00: Balancing the network:

              Trial  1: relative flow change = 0.046208
              Trial  2: relative flow change = 0.005541
                        maximum  flow change = 4.4884 for Link p227
                        maximum  head error  = 0.0002 for Link p227

     6:25:00: Balanced after 2 trials
   
     6:30:00: Balancing the network:

              Trial  1: relative flow change = 0.040618
              Trial  2: relative flow change = 0.005033
                        maximum  flow change = 4.0178 for Link PRV-1
                        maximum  head error  = 0.0001 for Link p227

     6:30:00: Balanced after 2 trials
   
     6:35:00: Balancing the network:

              Trial  1: relative flow change = 0.035074
              Trial  2: relative flow change = 0.004684
                        maximum  flow change = 3.5374 for Link p227
                        maximum  head error  = 0.0001 for Link p227

     6:35:00: Balanced after 2 trials
   
     6:40:00: Balancing the network:

              Trial  1: relative flow change = 0.030708
              Trial  2: relative flow change = 0.004247
                        maximum  flow change = 3.1494 for Link p227
                        maximum  head error  = 0.0001 for Link p227

     6:40:00: Balanced after 2 trials
   
     6:45:00: Balancing the network:

              Trial  1: relative flow change = 0.027994
              Trial  2: relative flow change = 0.003989
                        maximum  flow change = 2.9169 for Link p227
                        maximum  head error  = 0.0001 for Link p227

     6:45:00: Balanced after 2 trials
   
     6:50:00: Balancing the network:

              Trial  1: relative flow change = 0.026820
              Trial  2: relative flow change = 0.003900
                        maximum  flow change = 2.8397 for Link p227
                        maximum  head error  = 0.0001 for Link p227

     6:50:00: Balanced after 2 trials
   
     6:55:00: Balancing the network:

              Trial  1: relative flow change = 0.026756
              Trial  2: relative flow change = 0.003933
                        maximum  flow change = 2.8811 for Link PRV-1
                        maximum  head error  = 0.0001 for Link p227

     6:55:00: Balanced after 2 trials
   
     7:00:00: Balancing the network:

              Trial  1: relative flow change = 0.027000
              Trial  2: relative flow change = 0.003974
                        maximum  flow change = 2.9589 for Link p227
                        maximum  head error  = 0.0001 for Link p227

     7:00:00: Balanced after 2 trials
   
     7:05:00: Balancing the network:

              Trial  1: relative flow change = 0.027260
              Trial  2: relative flow change = 0.004043
                        maximum  flow change = 3.0405 for Link p227
                        maximum  head error  = 0.0001 for Link p227

     7:05:00: Balanced after 2 trials
   
     7:10:00: Balancing the network:

              Trial  1: relative flow change = 0.026683
              Trial  2: relative flow change = 0.004013
                        maximum  flow change = 3.0298 for Link p227
                        maximum  head error  = 0.0001 for Link p227

     7:10:00: Balanced after 2 trials
   
     7:15:00: Balancing the network:

              Trial  1: relative flow change = 0.025138
              Trial  2: relative flow change = 0.003869
                        maximum  flow change = 2.9027 for Link PRV-1
                        maximum  head error  = 0.0001 for Link p227

     7:15:00: Balanced after 2 trials
   
     7:20:00: Balancing the network:

              Trial  1: relative flow change = 0.022624
              Trial  2: relative flow change = 0.003615
                        maximum  flow change = 2.6514 for Link p227
                        maximum  head error  = 0.0001 for Link p227

     7:20:00: Balanced after 2 trials
   
     7:25:00: Balancing the network:

              Trial  1: relative flow change = 0.019316
              Trial  2: relative flow change = 0.003264
                        maximum  flow change = 2.2911 for Link p227
                        maximum  head error  = 0.0000 for Link p227

     7:25:00: Balanced after 2 trials
   
     7:30:00: Balancing the network:

              Trial  1: relative flow change = 0.015650
              Trial  2: relative flow change = 0.002854
                        maximum  flow change = 1.8685 for Link p227
                        maximum  head error  = 0.0000 for Link p227

     7:30:00: Balanced after 2 trials
   
     7:35:00: Balancing the network:

              Trial  1: relative flow change = 0.012130
              Trial  2: relative flow change = 0.002455
                        maximum  flow change = 1.4489 for Link PRV-1
                        maximum  head error  = 0.0000 for Link p227

     7:35:00: Balanced after 2 trials
   
     7:40:00: Balancing the network:

              Trial  1: relative flow change = 0.008987
                        maximum  flow change = 0.8445 for Link p110
                        maximum  head error  = 0.0000 for Link p110

     7:40:00: Balanced after 1 trials
   
     7:45:00: Balancing the network:

              Trial  1: relative flow change = 0.008090
                        maximum  flow change = 1.0645 for Link p227
                        maximum  head error  = 0.0000 for Link p227

     7:45:00: Balanced after 1 trials
   
     7:50:00: Balancing the network:

              Trial  1: relative flow change = 0.006272
                        maximum  flow change = 0.8589 for Link PRV-1
                        maximum  head error  = 0.0000 for Link p227

     7:50:00: Balanced after 1 trials
   
     7:55:00: Balancing the network:

              Trial  1: relative flow change = 0.005134
                        maximum  flow change = 0.6475 for Link p227
                        maximum  head error  = 0.0000 for Link p110

     7:55:00: Balanced after 1 trials
   
     8:00:00: Balancing the network:

              Trial  1: relative flow change = 0.004693
                        maximum  flow change = 0.5210 for Link PRV-1
                        maximum  head error  = 0.0000 for Link p110

     8:00:00: Balanced after 1 trials
   
     8:05:00: Balancing the network:

              Trial  1: relative flow change = 0.004581
                        maximum  flow change = 0.4782 for Link p227
                        maximum  head error  = 0.0000 for Link p110

     8:05:00: Balanced after 1 trials
   
     8:10:00: Balancing the network:

              Trial  1: relative flow change = 0.004729
                        maximum  flow change = 0.4716 for Link p227
                        maximum  head error  = 0.0000 for Link p110

     8:10:00: Balanced after 1 trials
   
     8:15:00: Balancing the network:

              Trial  1: relative flow change = 0.004920
                        maximum  flow change = 0.4975 for Link PRV-1
                        maximum  head error  = 0.0000 for Link p110

     8:15:00: Balanced after 1 trials
   
     8:20:00: Balancing the network:

              Trial  1: relative flow change = 0.004998
                        maximum  flow change = 0.5243 for Link p227
                        maximum  head error  = 0.0000 for Link p110

     8:20:00: Balanced after 1 trials
   
     8:25:00: Balancing the network:

              Trial  1: relative flow change = 0.004920
                        maximum  flow change = 0.5352 for Link p227
                        maximum  head error  = 0.0000 for Link p110

     8:25:00: Balanced after 1 trials
   
     8:30:00: Balancing the network:

              Trial  1: relative flow change = 0.004771
                        maximum  flow change = 0.5286 for Link p227
                        maximum  head error  = 0.0000 for Link p110

     8:30:00: Balanced after 1 trials
   
     8:35:00: Balancing the network:

              Trial  1: relative flow change = 0.004501
                        maximum  flow change = 0.5139 for Link PRV-1
                        maximum  head error  = 0.0000 for Link p110

     8:35:00: Balanced after 1 trials
   
     8:40:00: Balancing the network:

              Trial  1: relative flow change = 0.004133
                        maximum  flow change = 0.4849 for Link PRV-1
                        maximum  head error  = 0.0000 for Link p110

     8:40:00: Balanced after 1 trials
   
     8:45:00: Balancing the network:

              Trial  1: relative flow change = 0.003778
                        maximum  flow change = 0.4451 for Link p227
                        maximum  head error  = 0.0000 for Link p110

     8:45:00: Balanced after 1 trials
   
     8:50:00: Balancing the network:

              Trial  1: relative flow change = 0.003378
                        maximum  flow change = 0.4092 for Link p227
                        maximum  head error  = 0.0000 for Link p110

     8:50:00: Balanced after 1 trials
   
     8:55:00: Balancing the network:

              Trial  1: relative flow change = 0.002888
                        maximum  flow change = 0.3665 for Link PRV-1
                        maximum  head error  = 0.0000 for Link p110

     8:55:00: Balanced after 1 trials
   
     9:00:00: Balancing the network:

              Trial  1: relative flow change = 0.002539
                        maximum  flow change = 0.3125 for Link p227
                        maximum  head error  = 0.0000 for Link p110

     9:00:00: Balanced after 1 trials
   
     9:05:00: Balancing the network:

              Trial  1: relative flow change = 0.002166
                        maximum  flow change = 0.2775 for Link PRV-1
                        maximum  head error  = 0.0000 for Link p110

     9:05:00: Balanced after 1 trials
   
     9:10:00: Balancing the network:

              Trial  1: relative flow change = 0.001910
                        maximum  flow change = 0.2360 for Link p227
                        maximum  head error  = 0.0000 for Link p110

     9:10:00: Balanced after 1 trials
   
     9:15:00: Balancing the network:

              Trial  1: relative flow change = 0.001850
                        maximum  flow change = 0.2096 for Link p227
                        maximum  head error  = 0.0000 for Link p110

     9:15:00: Balanced after 1 trials
   
     9:20:00: Balancing the network:

              Trial  1: relative flow change = 0.001812
                        maximum  flow change = 0.2076 for Link p227
                        maximum  head error  = 0.0000 for Link p110

     9:20:00: Balanced after 1 trials
   
     9:25:00: Balancing the network:

              Trial  1: relative flow change = 0.001925
                        maximum  flow change = 0.2045 for Link PRV-1
                        maximum  head error  = 0.0000 for Link p110

     9:25:00: Balanced after 1 trials
   
     9:30:00: Balancing the network:

              Trial  1: relative flow change = 0.001950
                        maximum  flow change = 0.2224 for Link p227
                        maximum  head error  = 0.0000 for Link p110

     9:30:00: Balanced after 1 trials
   
     9:35:00: Balancing the network:

              Trial  1: relative flow change = 0.001931
                        maximum  flow change = 0.2260 for Link PRV-1
                        maximum  head error  = 0.0000 for Link p110

     9:35:00: Balanced after 1 trials
   
     9:40:00: Balancing the network:

              Trial  1: relative flow change = 0.001722
                        maximum  flow change = 0.2246 for Link p227
                        maximum  head error  = 0.0000 for Link p110

     9:40:00: Balanced after 1 trials
   
     9:45:00: Balancing the network:

              Trial  1: relative flow change = 0.001292
                        maximum  flow change = 0.1977 for Link PRV-1
                        maximum  head error  = 0.0000 for Link p227

     9:45:00: Balanced after 1 trials
   
     9:50:00: Balancing the network:

              Trial  1: relative flow change = 0.000722
                        maximum  flow change = 0.1425 for Link p227
                        maximum  head error  = 0.0000 for Link p227

     9:50:00: Balanced after 1 trials
   
     9:55:00: Balancing the network:

              Trial  1: relative flow change = 0.000454
                        maximum  flow change = 0.0673 for Link PRV-1
                        maximum  head error  = 0.0000 for Link p153

     9:55:00: Balanced after 1 trials
   
    10:00:00: Balancing the network:

              Trial  1: relative flow change = 0.000931
                        maximum  flow change = 0.0764 for Link p182
                        maximum  head error  = 0.0000 for Link p319

    10:00:00: Balanced after 1 trials
   
    10:05:00: Balancing the network:

              Trial  1: relative flow change = 0.001466
                        maximum  flow change = 0.1234 for Link p182
                        maximum  head error  = 0.0000 for Link p189

    10:05:00: Balanced after 1 trials
   
    10:10:00: Balancing the network:

              Trial  1: relative flow change = 0.001717
                        maximum  flow change = 0.1787 for Link p227
                        maximum  head error  = 0.0000 for Link p189

    10:10:00: Balanced after 1 trials
   
    10:15:00: Balancing the network:

              Trial  1: relative flow change = 0.001696
                        maximum  flow change = 0.2067 for Link PRV-1
                        maximum  head error  = 0.0000 for Link p189

    10:15:00: Balanced after 1 trials
   
    10:20:00: Balancing the network:

              Trial  1: relative flow change = 0.001387
                        maximum  flow change = 0.1995 for Link p227
                        maximum  head error  = 0.0000 for Link p227

    10:20:00: Balanced after 1 trials
   
    10:25:00: Balancing the network:

              Trial  1: relative flow change = 0.000934
                        maximum  flow change = 0.1550 for Link PRV-1
                        maximum  head error  = 0.0000 for Link p227

    10:25:00: Balanced after 1 trials
   
    10:30:00: Balancing the network:

              Trial  1: relative flow change = 0.000508
                        maximum  flow change = 0.0909 for Link PRV-1
                        maximum  head error  = 0.0000 for Link p153

    10:30:00: Balanced after 1 trials
   
    10:35:00: Balancing the network:

              Trial  1: relative flow change = 0.000526
                        maximum  flow change = 0.0422 for Link p110
                        maximum  head error  = 0.0000 for Link p153

    10:35:00: Balanced after 1 trials
   
    10:40:00: Balancing the network:

              Trial  1: relative flow change = 0.000684
                        maximum  flow change = 0.0638 for Link p110
                        maximum  head error  = 0.0000 for Link p153

    10:40:00: Balanced after 1 trials
   
    10:45:00: Balancing the network:

              Trial  1: relative flow change = 0.000580
                        maximum  flow change = 0.0641 for Link PRV-2
                        maximum  head error  = 0.0000 for Link p153

    10:45:00: Balanced after 1 trials
   
    10:50:00: Balancing the network:

              Trial  1: relative flow change = 0.000360
                        maximum  flow change = 0.0494 for Link PRV-2
                        maximum  head error  = 0.0000 for Link p153

    10:50:00: Balanced after 1 trials
   
    10:55:00: Balancing the network:

              Trial  1: relative flow change = 0.000402
                        maximum  flow change = 0.0240 for Link p182
                        maximum  head error  = 0.0000 for Link p153

    10:55:00: Balanced after 1 trials
   
    11:00:00: Balancing the network:

              Trial  1: relative flow change = 0.000754
                        maximum  flow change = 0.0615 for Link p182
                        maximum  head error  = 0.0000 for Link p319

    11:00:00: Balanced after 1 trials
   
    11:05:00: Balancing the network:

              Trial  1: relative flow change = 0.000977
                        maximum  flow change = 0.0893 for Link p227
                        maximum  head error  = 0.0000 for Link p189

    11:05:00: Balanced after 1 trials
   
    11:10:00: Balancing the network:

              Trial  1: relative flow change = 0.001104
                        maximum  flow change = 0.1173 for Link p227
                        maximum  head error  = 0.0000 for Link p189

    11:10:00: Balanced after 1 trials
   
    11:15:00: Balancing the network:

              Trial  1: relative flow change = 0.000993
                        maximum  flow change = 0.1333 for Link PRV-1
                        maximum  head error  = 0.0000 for Link p227

    11:15:00: Balanced after 1 trials
   
    11:20:00: Balancing the network:

              Trial  1: relative flow change = 0.000739
                        maximum  flow change = 0.1171 for Link p227
                        maximum  head error  = 0.0000 for Link p227

    11:20:00: Balanced after 1 trials
   
    11:25:00: Balancing the network:

              Trial  1: relative flow change = 0.000514
                        maximum  flow change = 0.0831 for Link PRV-1
                        maximum  head error  = 0.0000 for Link p227

    11:25:00: Balanced after 1 trials
   
    11:30:00: Balancing the network:

              Trial  1: relative flow change = 0.000329
                        maximum  flow change = 0.0539 for Link PRV-1
                        maximum  head error  = 0.0000 for Link p153

    11:30:00: Balanced after 1 trials
   
    11:35:00: Balancing the network:

              Trial  1: relative flow change = 0.000289
                        maximum  flow change = 0.0285 for Link p227
                        maximum  head error  = 0.0000 for Link p153

    11:35:00: Balanced after 1 trials
   
    11:40:00: Balancing the network:

              Trial  1: relative flow change = 0.000373
                        maximum  flow change = 0.0277 for Link p182
                        maximum  head error  = 0.0000 for Link p319

    11:40:00: Balanced after 1 trials
   
    11:45:00: Balancing the network:

              Trial  1: relative flow change = 0.000688
                        maximum  flow change = 0.0584 for Link p182
                        maximum  head error  = 0.0000 for Link p189

    11:45:00: Balanced after 1 trials
   
    11:50:00: Balancing the network:

              Trial  1: relative flow change = 0.001079
                        maximum  flow change = 0.0933 for Link p182
                        maximum  head error  = 0.0000 for Link p189

    11:50:00: Balanced after 1 trials
   
    11:55:00: Balancing the network:

              Trial  1: relative flow change = 0.001491
                        maximum  flow change = 0.1347 for Link p227
                        maximum  head error  = 0.0000 for Link p110

    11:55:00: Balanced after 1 trials
   
    12:00:00: Balancing the network:

              Trial  1: relative flow change = 0.001882
                        maximum  flow change = 0.1861 for Link p227
                        maximum  head error  = 0.0000 for Link p110

    12:00:00: Balanced after 1 trials
   
    12:05:00: Balancing the network:

              Trial  1: relative flow change = 0.002127
                        maximum  flow change = 0.2321 for Link PRV-1
                        maximum  head error  = 0.0000 for Link p110

    12:05:00: Balanced after 1 trials
   
    12:10:00: Balancing the network:

              Trial  1: relative flow change = 0.002275
                        maximum  flow change = 0.2585 for Link PRV-1
                        maximum  head error  = 0.0000 for Link p110

    12:10:00: Balanced after 1 trials
   
    12:15:00: Balancing the network:

              Trial  1: relative flow change = 0.002238
                        maximum  flow change = 0.2739 for Link p227
                        maximum  head error  = 0.0000 for Link p110

    12:15:00: Balanced after 1 trials
   
    12:20:00: Balancing the network:

              Trial  1: relative flow change = 0.002026
                        maximum  flow change = 0.2657 for Link PRV-1
                        maximum  head error  = 0.0000 for Link p110

    12:20:00: Balanced after 1 trials
   
    12:25:00: Balancing the network:

              Trial  1: relative flow change = 0.001768
                        maximum  flow change = 0.2373 for Link p227
                        maximum  head error  = 0.0000 for Link p110

    12:25:00: Balanced after 1 trials
   
    12:30:00: Balancing the network:

              Trial  1: relative flow change = 0.001496
                        maximum  flow change = 0.2044 for Link p227
                        maximum  head error  = 0.0000 for Link p227

    12:30:00: Balanced after 1 trials
   
    12:35:00: Balancing the network:

              Trial  1: relative flow change = 0.001204
                        maximum  flow change = 0.1714 for Link p227
                        maximum  head error  = 0.0000 for Link p227

    12:35:00: Balanced after 1 trials
   
    12:40:00: Balancing the network:

              Trial  1: relative flow change = 0.000985
                        maximum  flow change = 0.1362 for Link p227
                        maximum  head error  = 0.0000 for Link p227

    12:40:00: Balanced after 1 trials
   
    12:45:00: Balancing the network:

              Trial  1: relative flow change = 0.000807
                        maximum  flow change = 0.1117 for Link PRV-1
                        maximum  head error  = 0.0000 for Link p227

    12:45:00: Balanced after 1 trials
   
    12:50:00: Balancing the network:

              Trial  1: relative flow change = 0.000735
                        maximum  flow change = 0.0920 for Link p227
                        maximum  head error  = 0.0000 for Link p110

    12:50:00: Balanced after 1 trials
   
    12:55:00: Balancing the network:

              Trial  1: relative flow change = 0.000762
                        maximum  flow change = 0.0859 for Link PRV-1
                        maximum  head error  = 0.0000 for Link p110

    12:55:00: Balanced after 1 trials
   
    13:00:00: Balancing the network:

              Trial  1: relative flow change = 0.000942
                        maximum  flow change = 0.0912 for Link p227
                        maximum  head error  = 0.0000 for Link p110

    13:00:00: Balanced after 1 trials
   
    13:05:00: Balancing the network:

              Trial  1: relative flow change = 0.001127
                        maximum  flow change = 0.1147 for Link p227
                        maximum  head error  = 0.0000 for Link p110

    13:05:00: Balanced after 1 trials
   
    13:10:00: Balancing the network:

              Trial  1: relative flow change = 0.001475
                        maximum  flow change = 0.1368 for Link p227
                        maximum  head error  = 0.0000 for Link p110

    13:10:00: Balanced after 1 trials
   
    13:15:00: Balancing the network:

              Trial  1: relative flow change = 0.001861
                        maximum  flow change = 0.1796 for Link PRV-1
                        maximum  head error  = 0.0000 for Link p110

    13:15:00: Balanced after 1 trials
   
    13:20:00: Balancing the network:

              Trial  1: relative flow change = 0.002266
                        maximum  flow change = 0.2246 for Link p227
                        maximum  head error  = 0.0000 for Link p110

    13:20:00: Balanced after 1 trials
   
    13:25:00: Balancing the network:

              Trial  1: relative flow change = 0.002611
                        maximum  flow change = 0.2710 for Link PRV-1
                        maximum  head error  = 0.0000 for Link p110

    13:25:00: Balanced after 1 trials
   
    13:30:00: Balancing the network:

              Trial  1: relative flow change = 0.002876
                        maximum  flow change = 0.3096 for Link p227
                        maximum  head error  = 0.0000 for Link p110

    13:30:00: Balanced after 1 trials
   
    13:35:00: Balancing the network:

              Trial  1: relative flow change = 0.003153
                        maximum  flow change = 0.3384 for Link p227
                        maximum  head error  = 0.0000 for Link p110

    13:35:00: Balanced after 1 trials
   
    13:40:00: Balancing the network:

              Trial  1: relative flow change = 0.003256
                        maximum  flow change = 0.3699 for Link PRV-1
                        maximum  head error  = 0.0000 for Link p110

    13:40:00: Balanced after 1 trials
   
    13:45:00: Balancing the network:

              Trial  1: relative flow change = 0.003297
                        maximum  flow change = 0.3796 for Link PRV-1
                        maximum  head error  = 0.0000 for Link p110

    13:45:00: Balanced after 1 trials
   
    13:50:00: Balancing the network:

              Trial  1: relative flow change = 0.003315
                        maximum  flow change = 0.3843 for Link p227
                        maximum  head error  = 0.0000 for Link p110

    13:50:00: Balanced after 1 trials
   
    13:55:00: Balancing the network:

              Trial  1: relative flow change = 0.003273
                        maximum  flow change = 0.3869 for Link PRV-1
                        maximum  head error  = 0.0000 for Link p110

    13:55:00: Balanced after 1 trials
   
    14:00:00: Balancing the network:

              Trial  1: relative flow change = 0.003217
                        maximum  flow change = 0.3826 for Link p227
                        maximum  head error  = 0.0000 for Link p189

    14:00:00: Balanced after 1 trials
   
    14:05:00: Balancing the network:

              Trial  1: relative flow change = 0.003304
                        maximum  flow change = 0.3769 for Link p227
                        maximum  head error  = 0.0000 for Link p189

    14:05:00: Balanced after 1 trials
   
    14:10:00: Balancing the network:

              Trial  1: relative flow change = 0.003331
                        maximum  flow change = 0.3888 for Link p227
                        maximum  head error  = 0.0000 for Link p189

    14:10:00: Balanced after 1 trials
   
    14:15:00: Balancing the network:

              Trial  1: relative flow change = 0.003453
                        maximum  flow change = 0.3904 for Link PRV-1
                        maximum  head error  = 0.0000 for Link p189

    14:15:00: Balanced after 1 trials
   
    14:20:00: Balancing the network:

              Trial  1: relative flow change = 0.003669
                        maximum  flow change = 0.4042 for Link PRV-1
                        maximum  head error  = 0.0000 for Link p189

    14:20:00: Balanced after 1 trials
   
    14:25:00: Balancing the network:

              Trial  1: relative flow change = 0.003944
                        maximum  flow change = 0.4287 for Link p227
                        maximum  head error  = 0.0000 for Link p189

    14:25:00: Balanced after 1 trials
   
    14:30:00: Balancing the network:

              Trial  1: relative flow change = 0.004325
                        maximum  flow change = 0.4601 for Link p227
                        maximum  head error  = 0.0000 for Link p189

    14:30:00: Balanced after 1 trials
   
    14:35:00: Balancing the network:

              Trial  1: relative flow change = 0.004820
                        maximum  flow change = 0.5043 for Link PRV-1
                        maximum  head error  = 0.0000 for Link p189

    14:35:00: Balanced after 1 trials
   
    14:40:00: Balancing the network:

              Trial  1: relative flow change = 0.005429
                        maximum  flow change = 0.5611 for Link p227
                        maximum  head error  = 0.0000 for Link p189

    14:40:00: Balanced after 1 trials
   
    14:45:00: Balancing the network:

              Trial  1: relative flow change = 0.006203
                        maximum  flow change = 0.6297 for Link p227
                        maximum  head error  = 0.0000 for Link p189

    14:45:00: Balanced after 1 trials
   
    14:50:00: Balancing the network:

              Trial  1: relative flow change = 0.006943
                        maximum  flow change = 0.7159 for Link PRV-1
                        maximum  head error  = 0.0000 for Link p189

    14:50:00: Balanced after 1 trials
   
    14:55:00: Balancing the network:

              Trial  1: relative flow change = 0.007566
                        maximum  flow change = 0.7950 for Link p227
                        maximum  head error  = 0.0000 for Link p189

    14:55:00: Balanced after 1 trials
   
    15:00:00: Balancing the network:

              Trial  1: relative flow change = 0.008173
                        maximum  flow change = 0.8593 for Link PRV-1
                        maximum  head error  = 0.0000 for Link p189

    15:00:00: Balanced after 1 trials
   
    15:05:00: Balancing the network:

              Trial  1: relative flow change = 0.008495
                        maximum  flow change = 0.9213 for Link p227
                        maximum  head error  = 0.0000 for Link p189

    15:05:00: Balanced after 1 trials
   
    15:10:00: Balancing the network:

              Trial  1: relative flow change = 0.008407
                        maximum  flow change = 0.9476 for Link PRV-1
                        maximum  head error  = 0.0000 for Link p189

    15:10:00: Balanced after 1 trials
   
    15:15:00: Balancing the network:

              Trial  1: relative flow change = 0.008020
                        maximum  flow change = 0.9276 for Link p227
                        maximum  head error  = 0.0000 for Link p227

    15:15:00: Balanced after 1 trials
   
    15:20:00: Balancing the network:

              Trial  1: relative flow change = 0.007439
                        maximum  flow change = 0.8756 for Link p227
                        maximum  head error  = 0.0000 for Link p227

    15:20:00: Balanced after 1 trials
   
    15:25:00: Balancing the network:

              Trial  1: relative flow change = 0.006511
                        maximum  flow change = 0.8037 for Link PRV-1
                        maximum  head error  = 0.0000 for Link p227

    15:25:00: Balanced after 1 trials
   
    15:30:00: Balancing the network:

              Trial  1: relative flow change = 0.005601
                        maximum  flow change = 0.6937 for Link PRV-1
                        maximum  head error  = 0.0000 for Link p227

    15:30:00: Balanced after 1 trials
   
    15:35:00: Balancing the network:

              Trial  1: relative flow change = 0.004577
                        maximum  flow change = 0.5901 for Link p227
                        maximum  head error  = 0.0000 for Link p227

    15:35:00: Balanced after 1 trials
   
    15:40:00: Balancing the network:

              Trial  1: relative flow change = 0.003710
                        maximum  flow change = 0.4744 for Link p227
                        maximum  head error  = 0.0000 for Link p227

    15:40:00: Balanced after 1 trials
   
    15:45:00: Balancing the network:

              Trial  1: relative flow change = 0.002917
                        maximum  flow change = 0.3794 for Link PRV-1
                        maximum  head error  = 0.0000 for Link p227

    15:45:00: Balanced after 1 trials
   
    15:50:00: Balancing the network:

              Trial  1: relative flow change = 0.002218
                        maximum  flow change = 0.2923 for Link PRV-1
                        maximum  head error  = 0.0000 for Link p227

    15:50:00: Balanced after 1 trials
   
    15:55:00: Balancing the network:

              Trial  1: relative flow change = 0.001595
                        maximum  flow change = 0.2174 for Link p227
                        maximum  head error  = 0.0000 for Link p227

    15:55:00: Balanced after 1 trials
   
    16:00:00: Balancing the network:

              Trial  1: relative flow change = 0.001051
                        maximum  flow change = 0.1520 for Link PRV-1
                        maximum  head error  = 0.0000 for Link p227

    16:00:00: Balanced after 1 trials
   
    16:05:00: Balancing the network:

              Trial  1: relative flow change = 0.000438
                        maximum  flow change = 0.0946 for Link p227
                        maximum  head error  = 0.0000 for Link p227

    16:05:00: Balanced after 1 trials
   
    16:10:00: Balancing the network:

              Trial  1: relative flow change = 0.000483
                        maximum  flow change = 0.0303 for Link p182
                        maximum  head error  = 0.0000 for Link p319

    16:10:00: Balanced after 1 trials
   
    16:15:00: Balancing the network:

              Trial  1: relative flow change = 0.000951
                        maximum  flow change = 0.0723 for Link p182
                        maximum  head error  = 0.0000 for Link p189

    16:15:00: Balanced after 1 trials
   
    16:20:00: Balancing the network:

              Trial  1: relative flow change = 0.001468
                        maximum  flow change = 0.1133 for Link p182
                        maximum  head error  = 0.0000 for Link p189

    16:20:00: Balanced after 1 trials
   
    16:25:00: Balancing the network:

              Trial  1: relative flow change = 0.001928
                        maximum  flow change = 0.1623 for Link p227
                        maximum  head error  = 0.0000 for Link p189

    16:25:00: Balanced after 1 trials
   
    16:30:00: Balancing the network:

              Trial  1: relative flow change = 0.002183
                        maximum  flow change = 0.2126 for Link p227
                        maximum  head error  = 0.0000 for Link p189

    16:30:00: Balanced after 1 trials
   
    16:35:00: Balancing the network:

              Trial  1: relative flow change = 0.002240
                        maximum  flow change = 0.2392 for Link PRV-1
                        maximum  head error  = 0.0000 for Link p189

    16:35:00: Balanced after 1 trials
   
    16:40:00: Balancing the network:

              Trial  1: relative flow change = 0.002252
                        maximum  flow change = 0.2437 for Link PRV-1
                        maximum  head error  = 0.0000 for Link p189

    16:40:00: Balanced after 1 trials
   
    16:45:00: Balancing the network:

              Trial  1: relative flow change = 0.002269
                        maximum  flow change = 0.2441 for Link PRV-1
                        maximum  head error  = 0.0000 for Link p189

    16:45:00: Balanced after 1 trials
   
    16:50:00: Balancing the network:

              Trial  1: relative flow change = 0.002216
                        maximum  flow change = 0.2461 for Link PRV-1
                        maximum  head error  = 0.0000 for Link p189

    16:50:00: Balanced after 1 trials
   
    16:55:00: Balancing the network:

              Trial  1: relative flow change = 0.002209
                        maximum  flow change = 0.2397 for Link p227
                        maximum  head error  = 0.0000 for Link p189

    16:55:00: Balanced after 1 trials
   
    17:00:00: Balancing the network:

              Trial  1: relative flow change = 0.002286
                        maximum  flow change = 0.2399 for Link PRV-1
                        maximum  head error  = 0.0000 for Link p189

    17:00:00: Balanced after 1 trials
   
    17:05:00: Balancing the network:

              Trial  1: relative flow change = 0.002446
                        maximum  flow change = 0.2502 for Link PRV-1
                        maximum  head error  = 0.0000 for Link p189

    17:05:00: Balanced after 1 trials
   
    17:10:00: Balancing the network:

              Trial  1: relative flow change = 0.002546
                        maximum  flow change = 0.2698 for Link p227
                        maximum  head error  = 0.0000 for Link p189

    17:10:00: Balanced after 1 trials
   
    17:15:00: Balancing the network:

              Trial  1: relative flow change = 0.002589
                        maximum  flow change = 0.2813 for Link PRV-1
                        maximum  head error  = 0.0000 for Link p189

    17:15:00: Balanced after 1 trials
   
    17:20:00: Balancing the network:

              Trial  1: relative flow change = 0.002544
                        maximum  flow change = 0.2858 for Link p227
                        maximum  head error  = 0.0000 for Link p189

    17:20:00: Balanced after 1 trials
   
    17:25:00: Balancing the network:

              Trial  1: relative flow change = 0.002433
                        maximum  flow change = 0.2805 for Link PRV-1
                        maximum  head error  = 0.0000 for Link p189

    17:25:00: Balanced after 1 trials
   
    17:30:00: Balancing the network:

              Trial  1: relative flow change = 0.002262
                        maximum  flow change = 0.2684 for Link PRV-1
                        maximum  head error  = 0.0000 for Link p227

    17:30:00: Balanced after 1 trials
   
    17:35:00: Balancing the network:

              Trial  1: relative flow change = 0.002039
                        maximum  flow change = 0.2494 for Link p227
                        maximum  head error  = 0.0000 for Link p227

    17:35:00: Balanced after 1 trials
   
    17:40:00: Balancing the network:

              Trial  1: relative flow change = 0.001815
                        maximum  flow change = 0.2243 for Link PRV-1
                        maximum  head error  = 0.0000 for Link p227

    17:40:00: Balanced after 1 trials
   
    17:45:00: Balancing the network:

              Trial  1: relative flow change = 0.001717
                        maximum  flow change = 0.1986 for Link p227
                        maximum  head error  = 0.0000 for Link p189

    17:45:00: Balanced after 1 trials
   
    17:50:00: Balancing the network:

              Trial  1: relative flow change = 0.001730
                        maximum  flow change = 0.1883 for Link PRV-1
                        maximum  head error  = 0.0000 for Link p189

    17:50:00: Balanced after 1 trials
   
    17:55:00: Balancing the network:

              Trial  1: relative flow change = 0.001852
                        maximum  flow change = 0.1908 for Link p227
                        maximum  head error  = 0.0000 for Link p189

    17:55:00: Balanced after 1 trials
   
    18:00:00: Balancing the network:

              Trial  1: relative flow change = 0.001988
                        maximum  flow change = 0.2062 for Link PRV-1
                        maximum  head error  = 0.0000 for Link p189

    18:00:00: Balanced after 1 trials
   
    18:05:00: Balancing the network:

              Trial  1: relative flow change = 0.002150
                        maximum  flow change = 0.2228 for Link p227
                        maximum  head error  = 0.0000 for Link p189

    18:05:00: Balanced after 1 trials
   
    18:05:17: Pump PUMP_1 changed by Tank T1 control
    18:05:17: Balancing the network:

              Trial  1: relative flow change = 0.989376
              PRV PRV-3 switched from active to open
              Trial  2: relative flow change = 1.000111
              Pump PUMP_1 switched from open to closed
              Trial  3: relative flow change = 3.768367
              PRV PRV-3 switched from open to active
              Trial  4: relative flow change = 1.425975
              PRV PRV-2 switched from active to closed
              Pump PUMP_1 switched from closed to open
              Trial  5: relative flow change = 0.826548
              PRV PRV-2 switched from closed to active
              PRV PRV-3 switched from active to open
              Trial  6: relative flow change = 1.106725
              PRV PRV-3 switched from open to active
              Trial  7: relative flow change = 0.934440
              Trial  8: relative flow change = 0.650136
              Trial  9: relative flow change = 0.376537
              Trial 10: relative flow change = 0.151621
              Trial 11: relative flow change = 0.039543
              Trial 12: relative flow change = 0.006715
                        maximum  flow change = 0.8422 for Link p227
                        maximum  head error  = 0.0003 for Link p669

    18:05:17: Balanced after 12 trials
    18:05:17: Tank T1 is filling at 2.40 m
    18:05:17: Pump PUMP_1 changed from closed to open
   
    18:10:00: Balancing the network:

              Trial  1: relative flow change = 0.001726
                        maximum  flow change = 0.1796 for Link p110
                        maximum  head error  = 0.0000 for Link p667

    18:10:00: Balanced after 1 trials
   
    18:15:00: Balancing the network:

              Trial  1: relative flow change = 0.001711
                        maximum  flow change = 0.2469 for Link PRV-1
                        maximum  head error  = 0.0000 for Link p110

    18:15:00: Balanced after 1 trials
   
    18:20:00: Balancing the network:

              Trial  1: relative flow change = 0.001759
                        maximum  flow change = 0.2562 for Link PRV-1
                        maximum  head error  = 0.0000 for Link p110

    18:20:00: Balanced after 1 trials
   
    18:25:00: Balancing the network:

              Trial  1: relative flow change = 0.001812
                        maximum  flow change = 0.2631 for Link PRV-1
                        maximum  head error  = 0.0000 for Link p110

    18:25:00: Balanced after 1 trials
   
    18:30:00: Balancing the network:

              Trial  1: relative flow change = 0.001883
                        maximum  flow change = 0.2717 for Link p227
                        maximum  head error  = 0.0000 for Link p110

    18:30:00: Balanced after 1 trials
   
    18:35:00: Balancing the network:

              Trial  1: relative flow change = 0.001889
                        maximum  flow change = 0.2822 for Link PRV-1
                        maximum  head error  = 0.0000 for Link p189

    18:35:00: Balanced after 1 trials
   
    18:40:00: Balancing the network:

              Trial  1: relative flow change = 0.001891
                        maximum  flow change = 0.2815 for Link PRV-1
                        maximum  head error  = 0.0000 for Link p189

    18:40:00: Balanced after 1 trials
   
    18:45:00: Balancing the network:

              Trial  1: relative flow change = 0.001769
                        maximum  flow change = 0.2811 for Link PRV-1
                        maximum  head error  = 0.0000 for Link p189

    18:45:00: Balanced after 1 trials
   
    18:50:00: Balancing the network:

              Trial  1: relative flow change = 0.001608
                        maximum  flow change = 0.2607 for Link p227
                        maximum  head error  = 0.0000 for Link p189

    18:50:00: Balanced after 1 trials
   
    18:55:00: Balancing the network:

              Trial  1: relative flow change = 0.001337
                        maximum  flow change = 0.2361 for Link p227
                        maximum  head error  = 0.0000 for Link p227

    18:55:00: Balanced after 1 trials
   
    19:00:00: Balancing the network:

              Trial  1: relative flow change = 0.000915
                        maximum  flow change = 0.1940 for Link PRV-1
                        maximum  head error  = 0.0000 for Link PUMP_1

    19:00:00: Balanced after 1 trials
   
    19:05:00: Balancing the network:

              Trial  1: relative flow change = 0.000565
                        maximum  flow change = 0.1286 for Link p227
                        maximum  head error  = 0.0000 for Link PUMP_1

    19:05:00: Balanced after 1 trials
   
    19:10:00: Balancing the network:

              Trial  1: relative flow change = 0.000276
                        maximum  flow change = 0.0769 for Link p227
                        maximum  head error  = 0.0000 for Link PUMP_1

    19:10:00: Balanced after 1 trials
   
    19:15:00: Balancing the network:

              Trial  1: relative flow change = 0.000118
                        maximum  flow change = 0.0338 for Link PRV-1
                        maximum  head error  = 0.0000 for Link PUMP_1

    19:15:00: Balanced after 1 trials
   
    19:20:00: Balancing the network:

              Trial  1: relative flow change = 0.000181
                        maximum  flow change = 0.0181 for Link p182
                        maximum  head error  = 0.0000 for Link PUMP_1

    19:20:00: Balanced after 1 trials
   
    19:25:00: Balancing the network:

              Trial  1: relative flow change = 0.000461
                        maximum  flow change = 0.0527 for Link p110
                        maximum  head error  = 0.0000 for Link PUMP_1

    19:25:00: Balanced after 1 trials
   
    19:30:00: Balancing the network:

              Trial  1: relative flow change = 0.000875
                        maximum  flow change = 0.1023 for Link p110
                        maximum  head error  = 0.0000 for Link PUMP_1

    19:30:00: Balanced after 1 trials
   
    19:35:00: Balancing the network:

              Trial  1: relative flow change = 0.001313
                        maximum  flow change = 0.1528 for Link p110
                        maximum  head error  = 0.0000 for Link p110

    19:35:00: Balanced after 1 trials
   
    19:40:00: Balancing the network:

              Trial  1: relative flow change = 0.001570
                        maximum  flow change = 0.2042 for Link PRV-1
                        maximum  head error  = 0.0000 for Link p110

    19:40:00: Balanced after 1 trials
   
    19:45:00: Balancing the network:

              Trial  1: relative flow change = 0.001566
                        maximum  flow change = 0.2411 for Link p227
                        maximum  head error  = 0.0000 for Link p110

    19:45:00: Balanced after 1 trials
   
    19:50:00: Balancing the network:

              Trial  1: relative flow change = 0.001218
                        maximum  flow change = 0.2371 for Link PRV-1
                        maximum  head error  = 0.0000 for Link p227

    19:50:00: Balanced after 1 trials
   
    19:55:00: Balancing the network:

              Trial  1: relative flow change = 0.000551
                        maximum  flow change = 0.1791 for Link p227
                        maximum  head error  = 0.0000 for Link p227

    19:55:00: Balanced after 1 trials
   
    20:00:00: Balancing the network:

              Trial  1: relative flow change = 0.000453
                        maximum  flow change = 0.0699 for Link PRV-1
                        maximum  head error  = 0.0000 for Link PUMP_1

    20:00:00: Balanced after 1 trials
   
    20:05:00: Balancing the network:

              Trial  1: relative flow change = 0.001197
                        maximum  flow change = 0.1576 for Link p110
                        maximum  head error  = 0.0000 for Link p110

    20:05:00: Balanced after 1 trials
   
    20:10:00: Balancing the network:

              Trial  1: relative flow change = 0.001749
                        maximum  flow change = 0.2190 for Link p110
                        maximum  head error  = 0.0000 for Link p110

    20:10:00: Balanced after 1 trials
   
    20:15:00: Balancing the network:

              Trial  1: relative flow change = 0.001898
                        maximum  flow change = 0.2621 for Link p227
                        maximum  head error  = 0.0000 for Link p110

    20:15:00: Balanced after 1 trials
   
    20:20:00: Balancing the network:

              Trial  1: relative flow change = 0.001415
                        maximum  flow change = 0.2792 for Link p227
                        maximum  head error  = 0.0000 for Link p227

    20:20:00: Balanced after 1 trials
   
    20:25:00: Balancing the network:

              Trial  1: relative flow change = 0.000428
                        maximum  flow change = 0.1987 for Link PRV-1
                        maximum  head error  = 0.0000 for Link p227

    20:25:00: Balanced after 1 trials
   
    20:30:00: Balancing the network:

              Trial  1: relative flow change = 0.000970
                        maximum  flow change = 0.1120 for Link p110
                        maximum  head error  = 0.0000 for Link PUMP_1

    20:30:00: Balanced after 1 trials
   
    20:35:00: Balancing the network:

              Trial  1: relative flow change = 0.002273
                        maximum  flow change = 0.2774 for Link p110
                        maximum  head error  = 0.0000 for Link p110

    20:35:00: Balanced after 1 trials
   
    20:40:00: Balancing the network:

              Trial  1: relative flow change = 0.003324
                        maximum  flow change = 0.4005 for Link p110
                        maximum  head error  = 0.0000 for Link p110

    20:40:00: Balanced after 1 trials
   
    20:45:00: Balancing the network:

              Trial  1: relative flow change = 0.003879
                        maximum  flow change = 0.5159 for Link p227
                        maximum  head error  = 0.0000 for Link p110

    20:45:00: Balanced after 1 trials
   
    20:50:00: Balancing the network:

              Trial  1: relative flow change = 0.003876
                        maximum  flow change = 0.5947 for Link p227
                        maximum  head error  = 0.0000 for Link p110

    20:50:00: Balanced after 1 trials
   
    20:55:00: Balancing the network:

              Trial  1: relative flow change = 0.003151
                        maximum  flow change = 0.5889 for Link p227
                        maximum  head error  = 0.0000 for Link p227

    20:55:00: Balanced after 1 trials
   
    21:00:00: Balancing the network:

              Trial  1: relative flow change = 0.002030
                        maximum  flow change = 0.4713 for Link PRV-1
                        maximum  head error  = 0.0000 for Link p227

    21:00:00: Balanced after 1 trials
   
    21:05:00: Balancing the network:

              Trial  1: relative flow change = 0.000644
                        maximum  flow change = 0.2972 for Link PRV-1
                        maximum  head error  = 0.0000 for Link p227

    21:05:00: Balanced after 1 trials
   
    21:10:00: Balancing the network:

              Trial  1: relative flow change = 0.000855
                        maximum  flow change = 0.1138 for Link p110
                        maximum  head error  = 0.0000 for Link p110

    21:10:00: Balanced after 1 trials
   
    21:15:00: Balancing the network:

              Trial  1: relative flow change = 0.001980
                        maximum  flow change = 0.2567 for Link p110
                        maximum  head error  = 0.0000 for Link p110

    21:15:00: Balanced after 1 trials
   
    21:20:00: Balancing the network:

              Trial  1: relative flow change = 0.002895
                        maximum  flow change = 0.3630 for Link p110
                        maximum  head error  = 0.0000 for Link p110

    21:20:00: Balanced after 1 trials
   
    21:25:00: Balancing the network:

              Trial  1: relative flow change = 0.003591
                        maximum  flow change = 0.4436 for Link p227
                        maximum  head error  = 0.0000 for Link p110

    21:25:00: Balanced after 1 trials
   
    21:30:00: Balancing the network:

              Trial  1: relative flow change = 0.004218
                        maximum  flow change = 0.5440 for Link PRV-1
                        maximum  head error  = 0.0000 for Link p110

    21:30:00: Balanced after 1 trials
   
    21:35:00: Balancing the network:

              Trial  1: relative flow change = 0.004891
                        maximum  flow change = 0.6353 for Link PRV-1
[...]
              Trial  2: relative flow change = 0.999330
              Pump PUMP_1 switched from open to closed
              Trial  3: relative flow change = 3.802598
              PRV PRV-3 switched from open to active
              Trial  4: relative flow change = 1.430733
              PRV PRV-2 switched from active to closed
              Pump PUMP_1 switched from closed to open
              Trial  5: relative flow change = 0.834111
              PRV PRV-2 switched from closed to active
              PRV PRV-3 switched from active to open
              Trial  6: relative flow change = 1.097637
              PRV PRV-3 switched from open to active
              Trial  7: relative flow change = 0.926220
              Trial  8: relative flow change = 0.653032
              Trial  9: relative flow change = 0.379935
              Trial 10: relative flow change = 0.147835
              Trial 11: relative flow change = 0.030790
              Trial 12: relative flow change = 0.003635
                        maximum  flow change = 1.1644 for Link PRV-1
                        maximum  head error  = 0.0003 for Link p592

    66:28:08: Balanced after 12 trials
    66:28:08: Tank T1 is filling at 2.40 m
    66:28:08: Pump PUMP_1 changed from closed to open
   
    66:30:00: Balancing the network:

              Trial  1: relative flow change = 0.002241
                        maximum  flow change = 0.2630 for Link p110
                        maximum  head error  = 0.0000 for Link p110

    66:30:00: Balanced after 1 trials
   
    66:35:00: Balancing the network:

              Trial  1: relative flow change = 0.002321
                        maximum  flow change = 0.3543 for Link PRV-1
                        maximum  head error  = 0.0000 for Link p110

    66:35:00: Balanced after 1 trials
   
    66:40:00: Balancing the network:

              Trial  1: relative flow change = 0.002210
                        maximum  flow change = 0.3496 for Link PRV-1
                        maximum  head error  = 0.0000 for Link p110

    66:40:00: Balanced after 1 trials
   
    66:45:00: Balancing the network:

              Trial  1: relative flow change = 0.002009
                        maximum  flow change = 0.3318 for Link PRV-1
                        maximum  head error  = 0.0000 for Link p110

    66:45:00: Balanced after 1 trials
   
    66:50:00: Balancing the network:

              Trial  1: relative flow change = 0.001664
                        maximum  flow change = 0.3001 for Link p227
                        maximum  head error  = 0.0000 for Link p227

    66:50:00: Balanced after 1 trials
   
    66:55:00: Balancing the network:

              Trial  1: relative flow change = 0.001276
                        maximum  flow change = 0.2456 for Link PRV-1
                        maximum  head error  = 0.0000 for Link p227

    66:55:00: Balanced after 1 trials
   
    67:00:00: Balancing the network:

              Trial  1: relative flow change = 0.000750
                        maximum  flow change = 0.1856 for Link p227
                        maximum  head error  = 0.0000 for Link PUMP_1

    67:00:00: Balanced after 1 trials
   
    67:05:00: Balancing the network:

              Trial  1: relative flow change = 0.000325
                        maximum  flow change = 0.1027 for Link p227
                        maximum  head error  = 0.0000 for Link PUMP_1

    67:05:00: Balanced after 1 trials
   
    67:10:00: Balancing the network:

              Trial  1: relative flow change = 0.000201
                        maximum  flow change = 0.0363 for Link PRV-1
                        maximum  head error  = 0.0000 for Link PUMP_1

    67:10:00: Balanced after 1 trials
   
    67:15:00: Balancing the network:

              Trial  1: relative flow change = 0.000273
                        maximum  flow change = 0.0346 for Link p110
                        maximum  head error  = 0.0000 for Link PUMP_1

    67:15:00: Balanced after 1 trials
   
    67:20:00: Balancing the network:

              Trial  1: relative flow change = 0.000264
                        maximum  flow change = 0.0381 for Link p227
                        maximum  head error  = 0.0000 for Link PUMP_1

    67:20:00: Balanced after 1 trials
   
    67:25:00: Balancing the network:

              Trial  1: relative flow change = 0.000102
                        maximum  flow change = 0.0363 for Link p227
                        maximum  head error  = 0.0000 for Link PUMP_1

    67:25:00: Balanced after 1 trials
   
    67:30:00: Balancing the network:

              Trial  1: relative flow change = 0.000438
                        maximum  flow change = 0.0521 for Link p110
                        maximum  head error  = 0.0000 for Link PUMP_1

    67:30:00: Balanced after 1 trials
   
    67:35:00: Balancing the network:

              Trial  1: relative flow change = 0.000808
                        maximum  flow change = 0.0944 for Link p110
                        maximum  head error  = 0.0000 for Link PUMP_1

    67:35:00: Balanced after 1 trials
   
    67:40:00: Balancing the network:

              Trial  1: relative flow change = 0.001124
                        maximum  flow change = 0.1295 for Link p110
                        maximum  head error  = 0.0000 for Link PUMP_1

    67:40:00: Balanced after 1 trials
   
    67:45:00: Balancing the network:

              Trial  1: relative flow change = 0.001190
                        maximum  flow change = 0.1746 for Link PRV-1
                        maximum  head error  = 0.0000 for Link PUMP_1

    67:45:00: Balanced after 1 trials
   
    67:50:00: Balancing the network:

              Trial  1: relative flow change = 0.000928
                        maximum  flow change = 0.1810 for Link p227
                        maximum  head error  = 0.0000 for Link PUMP_1

    67:50:00: Balanced after 1 trials
   
    67:55:00: Balancing the network:

              Trial  1: relative flow change = 0.000443
                        maximum  flow change = 0.1352 for Link p227
                        maximum  head error  = 0.0000 for Link PUMP_1

    67:55:00: Balanced after 1 trials
   
    68:00:00: Balancing the network:

              Trial  1: relative flow change = 0.000438
                        maximum  flow change = 0.0597 for Link p110
                        maximum  head error  = 0.0000 for Link PUMP_1

    68:00:00: Balanced after 1 trials
   
    68:05:00: Balancing the network:

              Trial  1: relative flow change = 0.001040
                        maximum  flow change = 0.1376 for Link p110
                        maximum  head error  = 0.0000 for Link p110

    68:05:00: Balanced after 1 trials
   
    68:10:00: Balancing the network:

              Trial  1: relative flow change = 0.001583
                        maximum  flow change = 0.1997 for Link p110
                        maximum  head error  = 0.0000 for Link p110

    68:10:00: Balanced after 1 trials
   
    68:15:00: Balancing the network:

              Trial  1: relative flow change = 0.001705
                        maximum  flow change = 0.2378 for Link p227
                        maximum  head error  = 0.0000 for Link p110

    68:15:00: Balanced after 1 trials
   
    68:20:00: Balancing the network:

              Trial  1: relative flow change = 0.001449
                        maximum  flow change = 0.2512 for Link PRV-1
                        maximum  head error  = 0.0000 for Link p110

    68:20:00: Balanced after 1 trials
   
    68:25:00: Balancing the network:

              Trial  1: relative flow change = 0.000695
                        maximum  flow change = 0.2090 for Link PRV-1
                        maximum  head error  = 0.0000 for Link p227

    68:25:00: Balanced after 1 trials
   
    68:30:00: Balancing the network:

              Trial  1: relative flow change = 0.000423
                        maximum  flow change = 0.0904 for Link p227
                        maximum  head error  = 0.0000 for Link PUMP_1

    68:30:00: Balanced after 1 trials
   
    68:35:00: Balancing the network:

              Trial  1: relative flow change = 0.001382
                        maximum  flow change = 0.1711 for Link p110
                        maximum  head error  = 0.0000 for Link p110

    68:35:00: Balanced after 1 trials
   
    68:40:00: Balancing the network:

              Trial  1: relative flow change = 0.002300
                        maximum  flow change = 0.2775 for Link p110
                        maximum  head error  = 0.0000 for Link p110

    68:40:00: Balanced after 1 trials
   
    68:45:00: Balancing the network:

              Trial  1: relative flow change = 0.002829
                        maximum  flow change = 0.3598 for Link p227
                        maximum  head error  = 0.0000 for Link p110

    68:45:00: Balanced after 1 trials
   
    68:50:00: Balancing the network:

              Trial  1: relative flow change = 0.002892
                        maximum  flow change = 0.4360 for Link PRV-1
                        maximum  head error  = 0.0000 for Link p110

    68:50:00: Balanced after 1 trials
   
    68:55:00: Balancing the network:

              Trial  1: relative flow change = 0.002392
                        maximum  flow change = 0.4412 for Link PRV-1
                        maximum  head error  = 0.0000 for Link p227

    68:55:00: Balanced after 1 trials
   
    69:00:00: Balancing the network:

              Trial  1: relative flow change = 0.001573
                        maximum  flow change = 0.3595 for Link p227
                        maximum  head error  = 0.0000 for Link p227

    69:00:00: Balanced after 1 trials
   
    69:05:00: Balancing the network:

              Trial  1: relative flow change = 0.000469
                        maximum  flow change = 0.2310 for Link PRV-1
                        maximum  head error  = 0.0000 for Link p227

    69:05:00: Balanced after 1 trials
   
    69:10:00: Balancing the network:

              Trial  1: relative flow change = 0.000794
                        maximum  flow change = 0.1077 for Link p110
                        maximum  head error  = 0.0000 for Link p110

    69:10:00: Balanced after 1 trials
   
    69:15:00: Balancing the network:

              Trial  1: relative flow change = 0.001801
                        maximum  flow change = 0.2326 for Link p110
                        maximum  head error  = 0.0000 for Link p110

    69:15:00: Balanced after 1 trials
   
    69:20:00: Balancing the network:

              Trial  1: relative flow change = 0.002740
                        maximum  flow change = 0.3433 for Link p110
                        maximum  head error  = 0.0000 for Link p110

    69:20:00: Balanced after 1 trials
   
    69:25:00: Balancing the network:

              Trial  1: relative flow change = 0.003552
                        maximum  flow change = 0.4376 for Link p110
                        maximum  head error  = 0.0000 for Link p110

    69:25:00: Balanced after 1 trials
   
    69:30:00: Balancing the network:

              Trial  1: relative flow change = 0.004261
                        maximum  flow change = 0.5383 for Link PRV-1
                        maximum  head error  = 0.0000 for Link p110

    69:30:00: Balanced after 1 trials
   
    69:35:00: Balancing the network:

              Trial  1: relative flow change = 0.005078
                        maximum  flow change = 0.6410 for Link p227
                        maximum  head error  = 0.0000 for Link p110

    69:35:00: Balanced after 1 trials
   
    69:40:00: Balancing the network:

              Trial  1: relative flow change = 0.006055
                        maximum  flow change = 0.7614 for Link p227
                        maximum  head error  = 0.0000 for Link p110

    69:40:00: Balanced after 1 trials
   
    69:45:00: Balancing the network:

              Trial  1: relative flow change = 0.007141
                        maximum  flow change = 0.9042 for Link PRV-1
                        maximum  head error  = 0.0000 for Link p110

    69:45:00: Balanced after 1 trials
   
    69:50:00: Balancing the network:

              Trial  1: relative flow change = 0.008398
                        maximum  flow change = 1.0603 for Link PRV-1
                        maximum  head error  = 0.0000 for Link p110

    69:50:00: Balanced after 1 trials
   
    69:55:00: Balancing the network:

              Trial  1: relative flow change = 0.009523
                        maximum  flow change = 1.2394 for Link p227
                        maximum  head error  = 0.0000 for Link p110

    69:55:00: Balanced after 1 trials
   
    70:00:00: Balancing the network:

              Trial  1: relative flow change = 0.010325
              Trial  2: relative flow change = 0.001104
                        maximum  flow change = 1.4921 for Link p227
                        maximum  head error  = 0.0000 for Link p227

    70:00:00: Balanced after 2 trials
   
    70:05:00: Balancing the network:

              Trial  1: relative flow change = 0.009625
                        maximum  flow change = 1.1555 for Link p110
                        maximum  head error  = 0.0000 for Link p110

    70:05:00: Balanced after 1 trials
   
    70:10:00: Balancing the network:

              Trial  1: relative flow change = 0.010306
              Trial  2: relative flow change = 0.001016
                        maximum  flow change = 1.4543 for Link p227
                        maximum  head error  = 0.0000 for Link p227

    70:10:00: Balanced after 2 trials
   
    70:15:00: Balancing the network:

              Trial  1: relative flow change = 0.008287
                        maximum  flow change = 0.9616 for Link p110
                        maximum  head error  = 0.0000 for Link p110

    70:15:00: Balanced after 1 trials
   
    70:20:00: Balancing the network:

              Trial  1: relative flow change = 0.007747
                        maximum  flow change = 1.2642 for Link PRV-1
                        maximum  head error  = 0.0000 for Link p227

    70:20:00: Balanced after 1 trials
   
    70:25:00: Balancing the network:

              Trial  1: relative flow change = 0.005976
                        maximum  flow change = 1.0665 for Link p227
                        maximum  head error  = 0.0000 for Link p227

    70:25:00: Balanced after 1 trials
   
    70:30:00: Balancing the network:

              Trial  1: relative flow change = 0.004427
                        maximum  flow change = 0.8120 for Link PRV-1
                        maximum  head error  = 0.0000 for Link p227

    70:30:00: Balanced after 1 trials
   
    70:35:00: Balancing the network:

              Trial  1: relative flow change = 0.003282
                        maximum  flow change = 0.5981 for Link p227
                        maximum  head error  = 0.0000 for Link p227

    70:35:00: Balanced after 1 trials
   
    70:40:00: Balancing the network:

              Trial  1: relative flow change = 0.002826
                        maximum  flow change = 0.4424 for Link PRV-1
                        maximum  head error  = 0.0000 for Link p227

    70:40:00: Balanced after 1 trials
   
    70:45:00: Balancing the network:

              Trial  1: relative flow change = 0.003128
                        maximum  flow change = 0.3855 for Link p227
                        maximum  head error  = 0.0000 for Link p110

    70:45:00: Balanced after 1 trials
   
    70:50:00: Balancing the network:

              Trial  1: relative flow change = 0.003995
                        maximum  flow change = 0.4344 for Link p227
                        maximum  head error  = 0.0000 for Link p110

    70:50:00: Balanced after 1 trials
   
    70:55:00: Balancing the network:

              Trial  1: relative flow change = 0.005301
                        maximum  flow change = 0.5583 for Link PRV-1
                        maximum  head error  = 0.0000 for Link p110

    70:55:00: Balanced after 1 trials
   
    71:00:00: Balancing the network:

              Trial  1: relative flow change = 0.006640
                        maximum  flow change = 0.7380 for Link PRV-1
                        maximum  head error  = 0.0000 for Link p110

    71:00:00: Balanced after 1 trials
   
    71:05:00: Balancing the network:

              Trial  1: relative flow change = 0.007836
                        maximum  flow change = 0.9141 for Link p227
                        maximum  head error  = 0.0000 for Link p110

    71:05:00: Balanced after 1 trials
   
    71:10:00: Balancing the network:

              Trial  1: relative flow change = 0.008631
                        maximum  flow change = 1.0662 for Link PRV-1
                        maximum  head error  = 0.0000 for Link p110

    71:10:00: Balanced after 1 trials
   
    71:15:00: Balancing the network:

              Trial  1: relative flow change = 0.009059
                        maximum  flow change = 1.1586 for Link p227
                        maximum  head error  = 0.0000 for Link p110

    71:15:00: Balanced after 1 trials
   
    71:20:00: Balancing the network:

              Trial  1: relative flow change = 0.009123
                        maximum  flow change = 1.2006 for Link PRV-1
                        maximum  head error  = 0.0000 for Link p110

    71:20:00: Balanced after 1 trials
   
    71:25:00: Balancing the network:

              Trial  1: relative flow change = 0.009023
                        maximum  flow change = 1.1939 for Link PRV-1
                        maximum  head error  = 0.0000 for Link p110

    71:25:00: Balanced after 1 trials
   
    71:30:00: Balancing the network:

              Trial  1: relative flow change = 0.008996
                        maximum  flow change = 1.1679 for Link p227
                        maximum  head error  = 0.0000 for Link p110

    71:30:00: Balanced after 1 trials
   
    71:35:00: Balancing the network:

              Trial  1: relative flow change = 0.009246
                        maximum  flow change = 1.1534 for Link PRV-1
                        maximum  head error  = 0.0000 for Link p110

    71:35:00: Balanced after 1 trials
   
    71:40:00: Balancing the network:

              Trial  1: relative flow change = 0.009811
                        maximum  flow change = 1.1760 for Link p227
                        maximum  head error  = 0.0000 for Link p110

    71:40:00: Balanced after 1 trials
   
    71:45:00: Balancing the network:

              Trial  1: relative flow change = 0.010705
              Trial  2: relative flow change = 0.001389
                        maximum  flow change = 1.3390 for Link PRV-1
                        maximum  head error  = 0.0000 for Link p227

    71:45:00: Balanced after 2 trials
   
    71:50:00: Balancing the network:

              Trial  1: relative flow change = 0.010419
              Trial  2: relative flow change = 0.001502
                        maximum  flow change = 1.3906 for Link p227
                        maximum  head error  = 0.0000 for Link p227

    71:50:00: Balanced after 2 trials
   
    71:55:00: Balancing the network:

              Trial  1: relative flow change = 0.011289
              Trial  2: relative flow change = 0.001637
                        maximum  flow change = 1.4892 for Link p227
                        maximum  head error  = 0.0000 for Link p227

    71:55:00: Balanced after 2 trials
   
    72:00:00: Balancing the network:

              Trial  1: relative flow change = 0.011851
              Trial  2: relative flow change = 0.001738
                        maximum  flow change = 1.5441 for Link PRV-1
                        maximum  head error  = 0.0000 for Link p227

    72:00:00: Balanced after 2 trials
   
  Analysis ended Wed Apr  7 09:14:40 2021
